0,   100.00, 33, 0, 0, 60.00     / PSS(R)E 33 RAW created by rawd33  SUN, NOV 02 2025  14:58
IEEE118 BUS STUDY CASE
CREATED ON  DATE: 11/29/2015, TIME: 1:48:11 PM
     1,'RIVERSDE    ', 138.0000,1,   1,   1,   1,0.95500, -20.7459,1.10000,0.90000,1.10000,0.90000
     2,'POKAGON     ', 138.0000,1,   1,   1,   1,0.97139, -20.2093,1.10000,0.90000,1.10000,0.90000
     3,'HICKRYCK    ', 138.0000,1,   1,   1,   1,0.96769, -19.8611,1.10000,0.90000,1.10000,0.90000
     4,'NWCARLSL    ', 138.0000,1,   1,   1,   1,0.99800, -16.1369,1.10000,0.90000,1.10000,0.90000
     5,'OLIVE       ', 138.0000,1,   1,   1,   1,1.00199, -15.6906,1.10000,0.90000,1.10000,0.90000
     6,'KANKAKEE    ', 138.0000,1,   1,   1,   1,0.99000, -18.4248,1.10000,0.90000,1.10000,0.90000
     7,'JACKSNRD    ', 138.0000,1,   1,   1,   1,0.98933, -18.8720,1.10000,0.90000,1.10000,0.90000
     8,'OLIVE       ', 138.0000,1,   1,   1,   1,1.01500, -10.6561,1.10000,0.90000,1.10000,0.90000
     9,'BEQUINE     ', 138.0000,1,   1,   1,   1,1.04292,  -3.4020,1.10000,0.90000,1.10000,0.90000
    10,'BREED       ', 138.0000,2,   1,   1,   1,1.05000,   4.1789,1.10000,0.90000,1.10000,0.90000
    11,'SOUTHBND    ', 138.0000,1,   1,   1,   1,0.98508, -18.7162,1.10000,0.90000,1.10000,0.90000
    12,'TWINBRCH    ', 138.0000,2,   1,   1,   1,0.99000, -19.2349,1.10000,0.90000,1.10000,0.90000
    13,'CONCORD     ', 138.0000,1,   1,   1,   1,0.96828, -20.1108,1.10000,0.90000,1.10000,0.90000
    14,'GOSHENJT    ', 138.0000,1,   1,   1,   1,0.98358, -19.9734,1.10000,0.90000,1.10000,0.90000
    15,'FTWAYNE     ', 138.0000,1,   1,   1,   1,0.96999, -20.3300,1.10000,0.90000,1.10000,0.90000
    16,'N_ E_       ', 138.0000,1,   1,   1,   1,0.98383, -19.5349,1.10000,0.90000,1.10000,0.90000
    17,'SORENSON    ', 138.0000,1,   1,   1,   1,0.99489, -17.7243,1.10000,0.90000,1.10000,0.90000
    18,'MCKINLEY    ', 138.0000,1,   1,   1,   1,0.97299, -19.9885,1.10000,0.90000,1.10000,0.90000
    19,'LINCOLN     ', 138.0000,1,   1,   1,   1,0.96199, -20.5007,1.10000,0.90000,1.10000,0.90000
    20,'ADAMS       ', 138.0000,1,   1,   1,   1,0.95668, -19.5202,1.10000,0.90000,1.10000,0.90000
    21,'JAY         ', 138.0000,1,   1,   1,   1,0.95735, -17.8564,1.10000,0.90000,1.10000,0.90000
    22,'RANDOLPH    ', 138.0000,1,   1,   1,   1,0.96861, -15.2152,1.10000,0.90000,1.10000,0.90000
    23,'COLLCRNR    ', 138.0000,1,   1,   1,   1,0.99934, -10.1608,1.10000,0.90000,1.10000,0.90000
    24,'TRENTON     ', 138.0000,1,   1,   1,   1,0.99200, -10.1177,1.10000,0.90000,1.10000,0.90000
    25,'TANNRSCK    ', 138.0000,2,   1,   1,   1,1.05000,  -3.3388,1.10000,0.90000,1.10000,0.90000
    26,'TANNRSCK    ', 138.0000,2,   1,   1,   1,1.01500,  -1.5997,1.10000,0.90000,1.10000,0.90000
    27,'MADISON     ', 138.0000,1,   1,   1,   1,0.96800, -15.9467,1.10000,0.90000,1.10000,0.90000
    28,'MULLIN      ', 138.0000,1,   1,   1,   1,0.96158, -17.6926,1.10000,0.90000,1.10000,0.90000
    29,'GRANT       ', 138.0000,1,   1,   1,   1,0.96322, -18.7087,1.10000,0.90000,1.10000,0.90000
    30,'SORENSON    ', 138.0000,1,   1,   1,   1,0.98447, -12.6349,1.10000,0.90000,1.10000,0.90000
    31,'DEERCRK     ', 138.0000,2,   1,   1,   1,0.96700, -18.6003,1.10000,0.90000,1.10000,0.90000
    32,'DELAWARE    ', 138.0000,1,   1,   1,   1,0.96300, -16.4888,1.10000,0.90000,1.10000,0.90000
    33,'HAVILAND    ', 138.0000,1,   1,   1,   1,0.97077, -21.2125,1.10000,0.90000,1.10000,0.90000
    34,'ROCKHILL    ', 138.0000,1,   1,   1,   1,0.98399, -20.8250,1.10000,0.90000,1.10000,0.90000
    35,'WESTLIMA    ', 138.0000,1,   1,   1,   1,0.98040, -21.2929,1.10000,0.90000,1.10000,0.90000
    36,'STERLING    ', 138.0000,1,   1,   1,   1,0.97999, -21.2898,1.10000,0.90000,1.10000,0.90000
    37,'EASTLIMA    ', 138.0000,1,   1,   1,   1,0.99038, -20.3937,1.10000,0.90000,1.10000,0.90000
    38,'EASTLIMA    ', 138.0000,1,   1,   1,   1,0.95843, -14.5271,1.10000,0.90000,1.10000,0.90000
    39,'NWLIBRTY    ', 138.0000,1,   1,   1,   1,0.96898, -25.2180,1.10000,0.90000,1.10000,0.90000
    40,'WEST END    ', 138.0000,1,   1,   1,   1,0.96999, -27.1318,1.10000,0.90000,1.10000,0.90000
    41,'S_TIFFIN    ', 138.0000,1,   1,   1,   1,0.96686, -28.2083,1.10000,0.90000,1.10000,0.90000
    42,'HOWARD      ', 138.0000,1,   1,   1,   1,0.98499, -28.3369,1.10000,0.90000,1.10000,0.90000
    43,'S_KENTON    ', 138.0000,1,   1,   1,   1,0.97678, -20.6464,1.10000,0.90000,1.10000,0.90000
    44,'WMVERNON    ', 138.0000,1,   1,   1,   1,0.98390, -17.8299,1.10000,0.90000,1.10000,0.90000
    45,'N_NEWARK    ', 138.0000,1,   1,   1,   1,0.98596, -15.8769,1.10000,0.90000,1.10000,0.90000
    46,'W_LANCST    ', 138.0000,2,   1,   1,   1,1.00500, -12.9388,1.10000,0.90000,1.10000,0.90000
    47,'CROOKSVL    ', 138.0000,1,   1,   1,   1,1.01648, -10.5511,1.10000,0.90000,1.10000,0.90000
    48,'ZANESVLL    ', 138.0000,1,   1,   1,   1,1.02065, -11.5408,1.10000,0.90000,1.10000,0.90000
    49,'PHILO       ', 138.0000,2,   1,   1,   1,1.02500, -10.5495,1.10000,0.90000,1.10000,0.90000
    50,'WCAMBRDG    ', 138.0000,1,   1,   1,   1,1.00071, -12.8188,1.10000,0.90000,1.10000,0.90000
    51,'NEWCMRST    ', 138.0000,1,   1,   1,   1,0.96619, -15.7437,1.10000,0.90000,1.10000,0.90000
    52,'SCOSHOCT    ', 138.0000,1,   1,   1,   1,0.95608, -16.7850,1.10000,0.90000,1.10000,0.90000
    53,'WOOSTER     ', 138.0000,1,   1,   1,   1,0.94560, -18.0036,1.10000,0.90000,1.10000,0.90000
    54,'TORREY      ', 138.0000,2,   1,   1,   1,0.95500, -17.2678,1.10000,0.90000,1.10000,0.90000
    55,'WAGENHLS    ', 138.0000,1,   1,   1,   1,0.95200, -17.3718,1.10000,0.90000,1.10000,0.90000
    56,'SUNNYSDE    ', 138.0000,1,   1,   1,   1,0.95400, -17.3189,1.10000,0.90000,1.10000,0.90000
    57,'WNWPHIL1    ', 138.0000,1,   1,   1,   1,0.97020, -15.7870,1.10000,0.90000,1.10000,0.90000
    58,'WNWPHIL2    ', 138.0000,1,   1,   1,   1,0.95860, -16.7090,1.10000,0.90000,1.10000,0.90000
    59,'TIDD        ', 138.0000,2,   1,   1,   1,0.98500, -10.6134,1.10000,0.90000,1.10000,0.90000
    60,'SWKAMMER    ', 138.0000,1,   1,   1,   1,0.99311,  -6.3517,1.10000,0.90000,1.10000,0.90000
    61,'W_KAMMER    ', 138.0000,2,   1,   1,   1,0.99500,  -5.4639,1.10000,0.90000,1.10000,0.90000
    62,'NATRIUM     ', 138.0000,1,   1,   1,   1,0.99799,  -5.8785,1.10000,0.90000,1.10000,0.90000
    63,'TIDD        ', 138.0000,1,   1,   1,   1,0.96831,  -6.9659,1.10000,0.90000,1.10000,0.90000
    64,'KAMMER      ', 138.0000,1,   1,   1,   1,0.98352,  -5.0542,1.10000,0.90000,1.10000,0.90000
    65,'MUSKNGUM    ', 138.0000,2,   1,   1,   1,1.00500,  -1.7865,1.10000,0.90000,1.10000,0.90000
    66,'MUSKNGUM    ', 138.0000,2,   1,   1,   1,1.05000,  -0.8741,1.10000,0.90000,1.10000,0.90000
    67,'SUMMERFL    ', 138.0000,1,   1,   1,   1,1.01930,  -3.9527,1.10000,0.90000,1.10000,0.90000
    68,'SPORN       ', 138.0000,1,   1,   1,   1,1.00323,  -2.0301,1.10000,0.90000,1.10000,0.90000
    69,'SPORN       ', 138.0000,3,   1,   1,   1,1.03500,   0.0000,1.10000,0.90000,1.10000,0.90000
    70,'PORTSMTH    ', 138.0000,1,   1,   1,   1,0.98399,  -7.8763,1.10000,0.90000,1.10000,0.90000
    71,'NPORTSMT    ', 138.0000,1,   1,   1,   1,0.98682,  -8.3512,1.10000,0.90000,1.10000,0.90000
    72,'HILLSBRO    ', 138.0000,1,   1,   1,   1,0.97999,  -9.7739,1.10000,0.90000,1.10000,0.90000
    73,'SARGENTS    ', 138.0000,1,   1,   1,   1,0.99099,  -8.5629,1.10000,0.90000,1.10000,0.90000
    74,'BELLEFNT    ', 138.0000,1,   1,   1,   1,0.95801,  -8.8379,1.10000,0.90000,1.10000,0.90000
    75,'STHPOINT    ', 138.0000,1,   1,   1,   1,0.96715,  -7.5775,1.10000,0.90000,1.10000,0.90000
    76,'DARRAH      ', 138.0000,1,   1,   1,   1,0.94300,  -8.9139,1.10000,0.90000,1.10000,0.90000
    77,'TURNER      ', 138.0000,1,   1,   1,   1,1.00600,  -4.2464,1.10000,0.90000,1.10000,0.90000
    78,'CHEMICAL    ', 138.0000,1,   1,   1,   1,1.00351,  -4.3623,1.10000,0.90000,1.10000,0.90000
    79,'CAPITLHL    ', 138.0000,1,   1,   1,   1,1.00903,  -3.7019,1.10000,0.90000,1.10000,0.90000
    80,'CABINCRK    ', 138.0000,2,   1,   1,   1,1.04000,  -0.4499,1.10000,0.90000,1.10000,0.90000
    81,'KANAWHA     ', 138.0000,1,   1,   1,   1,0.99684,  -1.4121,1.10000,0.90000,1.10000,0.90000
    82,'LOGAN       ', 138.0000,1,   1,   1,   1,0.98639,  -2.3283,1.10000,0.90000,1.10000,0.90000
    83,'SPRIGG      ', 138.0000,1,   1,   1,   1,0.98041,  -0.0048,1.10000,0.90000,1.10000,0.90000
    84,'BETSYLNE    ', 138.0000,1,   1,   1,   1,0.97746,   4.3437,1.10000,0.90000,1.10000,0.90000
    85,'BEAVERCK    ', 138.0000,1,   1,   1,   1,0.98501,   6.7689,1.10000,0.90000,1.10000,0.90000
    86,'HAZARD      ', 138.0000,1,   1,   1,   1,0.98671,   5.3992,1.10000,0.90000,1.10000,0.90000
    87,'PINEVLLE    ', 138.0000,2,   1,   1,   1,1.01500,   5.6571,1.10000,0.90000,1.10000,0.90000
    88,'FREMONT     ', 138.0000,1,   1,   1,   1,0.98579,  11.4763,1.10000,0.90000,1.10000,0.90000
    89,'CLINCHRV    ', 138.0000,2,   1,   1,   1,1.00500,  16.6142,1.10000,0.90000,1.10000,0.90000
    90,'HOLSTON     ', 138.0000,1,   1,   1,   1,0.98501,   4.4002,1.10000,0.90000,1.10000,0.90000
    91,'HOLSTONT    ', 138.0000,1,   1,   1,   1,0.98002,   2.5935,1.10000,0.90000,1.10000,0.90000
    92,'SALTVLLE    ', 138.0000,1,   1,   1,   1,0.99000,   0.3974,1.10000,0.90000,1.10000,0.90000
    93,'TAZEWELL    ', 138.0000,1,   1,   1,   1,0.98639,  -1.5537,1.10000,0.90000,1.10000,0.90000
    94,'SWITCHBK    ', 138.0000,1,   1,   1,   1,0.99044,  -2.7876,1.10000,0.90000,1.10000,0.90000
    95,'CALDWELL    ', 138.0000,1,   1,   1,   1,0.98059,  -3.2589,1.10000,0.90000,1.10000,0.90000
    96,'BAILEYSV    ', 138.0000,1,   1,   1,   1,0.99208,  -2.7944,1.10000,0.90000,1.10000,0.90000
    97,'SUNDIAL     ', 138.0000,1,   1,   1,   1,1.01093,  -1.9742,1.10000,0.90000,1.10000,0.90000
    98,'BRADLEY     ', 138.0000,1,   1,   1,   1,1.02324,  -2.7416,1.10000,0.90000,1.10000,0.90000
    99,'HINTON      ', 138.0000,1,   1,   1,   1,1.01000,  -3.7869,1.10000,0.90000,1.10000,0.90000
   100,'GLEN LYN    ', 138.0000,2,   1,   1,   1,1.01700,  -3.3608,1.10000,0.90000,1.10000,0.90000
   101,'WYTHE       ', 138.0000,1,   1,   1,   1,0.99218,  -2.6433,1.10000,0.90000,1.10000,0.90000
   102,'SMYTHE      ', 138.0000,1,   1,   1,   1,0.98967,  -0.7214,1.10000,0.90000,1.10000,0.90000
   103,'CLAYTOR     ', 138.0000,2,   1,   1,   1,1.01000,  -7.1020,1.10000,0.90000,1.10000,0.90000
   104,'HANCOCK     ', 138.0000,1,   1,   1,   1,0.97101,  -9.6711,1.10000,0.90000,1.10000,0.90000
   105,'ROANOKE     ', 138.0000,1,   1,   1,   1,0.96500, -10.7768,1.10000,0.90000,1.10000,0.90000
   106,'CLOVERDL    ', 138.0000,1,   1,   1,   1,0.96114, -11.0369,1.10000,0.90000,1.10000,0.90000
   107,'REUSENS     ', 138.0000,1,   1,   1,   1,0.95200, -13.8377,1.10000,0.90000,1.10000,0.90000
   108,'BLAINE      ', 138.0000,1,   1,   1,   1,0.96621, -11.9746,1.10000,0.90000,1.10000,0.90000
   109,'FRANKLIN    ', 138.0000,1,   1,   1,   1,0.96703, -12.4262,1.10000,0.90000,1.10000,0.90000
   110,'FIELDALE    ', 138.0000,1,   1,   1,   1,0.97300, -13.2706,1.10000,0.90000,1.10000,0.90000
   111,'DANRIVER    ', 138.0000,2,   1,   1,   1,0.98000, -11.6255,1.10000,0.90000,1.10000,0.90000
   112,'DANVILLE    ', 138.0000,1,   1,   1,   1,0.97500, -16.3698,1.10000,0.90000,1.10000,0.90000
   113,'DEER CRK    ', 138.0000,1,   1,   1,   1,0.99299, -17.7086,1.10000,0.90000,1.10000,0.90000
   114,'WMEDFORD    ', 138.0000,1,   1,   1,   1,0.96010, -16.8237,1.10000,0.90000,1.10000,0.90000
   115,'MEDFORD     ', 138.0000,1,   1,   1,   1,0.96003, -16.8321,1.10000,0.90000,1.10000,0.90000
   116,'KYGERCRK    ', 138.0000,1,   1,   1,   1,1.00500,  -2.4653,1.10000,0.90000,1.10000,0.90000
   117,'COREY       ', 138.0000,1,   1,   1,   1,0.97382, -20.7759,1.10000,0.90000,1.10000,0.90000
   118,'WHUNTNGD    ', 138.0000,1,   1,   1,   1,0.94933,  -8.6609,1.10000,0.90000,1.10000,0.90000
 0 /End of Bus data, Begin Load data
     1,'1 ',1,   1,   1,     0.000,     0.000,     0.000,     0.000,    55.920,   -29.604,   1,1,0
     2,'1 ',1,   1,   1,     0.000,     0.000,     0.000,     0.000,    21.195,    -9.538,   1,1,0
     3,'1 ',1,   1,   1,     0.000,     0.000,     0.000,     0.000,    41.648,   -10.679,   1,1,0
     4,'1 ',1,   1,   1,     0.000,     0.000,     0.000,     0.000,    39.156,   -12.048,   1,1,0
     6,'1 ',1,   1,   1,     0.000,     0.000,     0.000,     0.000,    53.056,   -22.447,   1,1,0
     7,'1 ',1,   1,   1,     0.000,     0.000,     0.000,     0.000,    19.412,    -2.043,   1,1,0
     8,'1 ',1,   1,   1,     0.000,     0.000,     0.000,     0.000,    27.179,     0.000,   1,1,0
    11,'1 ',1,   1,   1,     0.000,     0.000,     0.000,     0.000,    72.136,   -23.702,   1,1,0
    12,'1 ',1,   1,   1,     0.000,     0.000,     0.000,     0.000,    47.954,   -10.203,   1,1,0
    13,'1 ',1,   1,   1,     0.000,     0.000,     0.000,     0.000,    36.264,   -17.066,   1,1,0
    14,'1 ',1,   1,   1,     0.000,     0.000,     0.000,     0.000,    14.471,    -1.034,   1,1,0
    15,'1 ',1,   1,   1,     0.000,     0.000,     0.000,     0.000,    95.655,   -31.885,   1,1,0
    16,'1 ',1,   1,   1,     0.000,     0.000,     0.000,     0.000,    25.828,   -10.331,   1,1,0
    17,'1 ',1,   1,   1,     0.000,     0.000,     0.000,     0.000,    11.113,    -3.031,   1,1,0
    18,'1 ',1,   1,   1,     0.000,     0.000,     0.000,     0.000,    63.377,   -35.914,   1,1,0
    19,'1 ',1,   1,   1,     0.000,     0.000,     0.000,     0.000,    48.626,   -27.015,   1,1,0
    20,'1 ',1,   1,   1,     0.000,     0.000,     0.000,     0.000,    19.667,    -3.278,   1,1,0
    21,'1 ',1,   1,   1,     0.000,     0.000,     0.000,     0.000,    15.275,    -8.729,   1,1,0
    22,'1 ',1,   1,   1,     0.000,     0.000,     0.000,     0.000,    10.659,    -5.329,   1,1,0
    23,'1 ',1,   1,   1,     0.000,     0.000,     0.000,     0.000,     7.009,    -3.004,   1,1,0
    24,'1 ',1,   1,   1,     0.000,     0.000,     0.000,     0.000,    13.211,     0.000,   1,1,0
    27,'1 ',1,   1,   1,     0.000,     0.000,     0.000,     0.000,    75.771,   -13.874,   1,1,0
    28,'1 ',1,   1,   1,     0.000,     0.000,     0.000,     0.000,    18.386,    -7.571,   1,1,0
    29,'1 ',1,   1,   1,     0.000,     0.000,     0.000,     0.000,    25.868,    -4.311,   1,1,0
    31,'1 ',1,   1,   1,     0.000,     0.000,     0.000,     0.000,    45.985,   -28.874,   1,1,0
    32,'1 ',1,   1,   1,     0.000,     0.000,     0.000,     0.000,    63.620,   -24.801,   1,1,0
    33,'1 ',1,   1,   1,     0.000,     0.000,     0.000,     0.000,    24.406,    -9.550,   1,1,0
    34,'1 ',1,   1,   1,     0.000,     0.000,     0.000,     0.000,    60.935,   -26.853,   1,1,0
    35,'1 ',1,   1,   1,     0.000,     0.000,     0.000,     0.000,    34.333,    -9.364,   1,1,0
    36,'1 ',1,   1,   1,     0.000,     0.000,     0.000,     0.000,    32.279,   -17.701,   1,1,0
    39,'1 ',1,   1,   1,     0.000,     0.000,     0.000,     0.000,    28.757,   -11.716,   1,1,0
    40,'1 ',1,   1,   1,     0.000,     0.000,     0.000,     0.000,    70.147,   -24.445,   1,1,0
    41,'1 ',1,   1,   1,     0.000,     0.000,     0.000,     0.000,    39.580,   -10.697,   1,1,0
    42,'1 ',1,   1,   1,     0.000,     0.000,     0.000,     0.000,    98.948,   -23.706,   1,1,0
    43,'1 ',1,   1,   1,     0.000,     0.000,     0.000,     0.000,    18.866,    -7.337,   1,1,0
    44,'1 ',1,   1,   1,     0.000,     0.000,     0.000,     0.000,    16.528,    -8.264,   1,1,0
    45,'1 ',1,   1,   1,     0.000,     0.000,     0.000,     0.000,    54.520,   -22.631,   1,1,0
    46,'1 ',1,   1,   1,     0.000,     0.000,     0.000,     0.000,    27.722,    -9.901,   1,1,0
    47,'1 ',1,   1,   1,     0.000,     0.000,     0.000,     0.000,    32.907,     0.000,   1,1,0
    48,'1 ',1,   1,   1,     0.000,     0.000,     0.000,     0.000,    19.199,   -10.559,   1,1,0
    49,'1 ',1,   1,   1,     0.000,     0.000,     0.000,     0.000,    82.808,   -28.554,   1,1,0
    50,'1 ',1,   1,   1,     0.000,     0.000,     0.000,     0.000,    16.976,    -3.994,   1,1,0
    51,'1 ',1,   1,   1,     0.000,     0.000,     0.000,     0.000,    18.210,    -8.570,   1,1,0
    52,'1 ',1,   1,   1,     0.000,     0.000,     0.000,     0.000,    19.692,    -5.470,   1,1,0
    53,'1 ',1,   1,   1,     0.000,     0.000,     0.000,     0.000,    25.723,   -12.302,   1,1,0
    54,'1 ',1,   1,   1,     0.000,     0.000,     0.000,     0.000,   123.900,   -35.087,   1,1,0
    55,'1 ',1,   1,   1,     0.000,     0.000,     0.000,     0.000,    69.513,   -24.274,   1,1,0
    56,'1 ',1,   1,   1,     0.000,     0.000,     0.000,     0.000,    92.296,   -19.778,   1,1,0
    57,'1 ',1,   1,   1,     0.000,     0.000,     0.000,     0.000,    12.748,    -3.187,   1,1,0
    58,'1 ',1,   1,   1,     0.000,     0.000,     0.000,     0.000,    13.059,    -3.265,   1,1,0
    59,'1 ',1,   1,   1,     0.000,     0.000,     0.000,     0.000,   285.501,  -116.468,   1,1,0
    60,'1 ',1,   1,   1,     0.000,     0.000,     0.000,     0.000,    79.086,    -3.042,   1,1,0
    62,'1 ',1,   1,   1,     0.000,     0.000,     0.000,     0.000,    77.310,   -14.056,   1,1,0
    66,'1 ',1,   1,   1,     0.000,     0.000,     0.000,     0.000,    35.374,   -16.327,   1,1,0
    67,'1 ',1,   1,   1,     0.000,     0.000,     0.000,     0.000,    26.950,    -6.737,   1,1,0
    70,'1 ',1,   1,   1,     0.000,     0.000,     0.000,     0.000,    68.165,   -20.656,   1,1,0
    72,'1 ',1,   1,   1,     0.000,     0.000,     0.000,     0.000,    12.495,     0.000,   1,1,0
    73,'1 ',1,   1,   1,     0.000,     0.000,     0.000,     0.000,     6.110,     0.000,   1,1,0
    74,'1 ',1,   1,   1,     0.000,     0.000,     0.000,     0.000,    74.091,   -29.419,   1,1,0
    75,'1 ',1,   1,   1,     0.000,     0.000,     0.000,     0.000,    50.247,   -11.760,   1,1,0
    76,'1 ',1,   1,   1,     0.000,     0.000,     0.000,     0.000,    76.468,   -40.483,   1,1,0
    77,'1 ',1,   1,   1,     0.000,     0.000,     0.000,     0.000,    60.274,   -27.667,   1,1,0
    78,'1 ',1,   1,   1,     0.000,     0.000,     0.000,     0.000,    70.504,   -25.818,   1,1,0
    79,'1 ',1,   1,   1,     0.000,     0.000,     0.000,     0.000,    38.305,   -31.430,   1,1,0
    80,'1 ',1,   1,   1,     0.000,     0.000,     0.000,     0.000,   120.192,   -24.038,   1,1,0
    82,'1 ',1,   1,   1,     0.000,     0.000,     0.000,     0.000,    55.500,   -27.750,   1,1,0
    83,'1 ',1,   1,   1,     0.000,     0.000,     0.000,     0.000,    20.807,   -10.404,   1,1,0
    84,'1 ',1,   1,   1,     0.000,     0.000,     0.000,     0.000,    11.513,    -7.327,   1,1,0
    85,'1 ',1,   1,   1,     0.000,     0.000,     0.000,     0.000,    24.736,   -15.460,   1,1,0
    86,'1 ',1,   1,   1,     0.000,     0.000,     0.000,     0.000,    21.569,   -10.271,   1,1,0
    88,'1 ',1,   1,   1,     0.000,     0.000,     0.000,     0.000,    49.393,   -10.290,   1,1,0
    90,'1 ',1,   1,   1,     0.000,     0.000,     0.000,     0.000,   167.998,   -43.288,   1,1,0
    91,'1 ',1,   1,   1,     0.000,     0.000,     0.000,     0.000,    10.412,     0.000,   1,1,0
    92,'1 ',1,   1,   1,     0.000,     0.000,     0.000,     0.000,    66.320,   -10.203,   1,1,0
    93,'1 ',1,   1,   1,     0.000,     0.000,     0.000,     0.000,    12.333,    -7.194,   1,1,0
    94,'1 ',1,   1,   1,     0.000,     0.000,     0.000,     0.000,    30.582,   -16.310,   1,1,0
    95,'1 ',1,   1,   1,     0.000,     0.000,     0.000,     0.000,    43.679,   -32.239,   1,1,0
    96,'1 ',1,   1,   1,     0.000,     0.000,     0.000,     0.000,    38.609,   -15.240,   1,1,0
    97,'1 ',1,   1,   1,     0.000,     0.000,     0.000,     0.000,    14.677,    -8.806,   1,1,0
    98,'1 ',1,   1,   1,     0.000,     0.000,     0.000,     0.000,    32.473,    -7.641,   1,1,0
    99,'1 ',1,   1,   1,     0.000,     0.000,     0.000,     0.000,    41.172,     0.000,   1,1,0
   100,'1 ',1,   1,   1,     0.000,     0.000,     0.000,     0.000,    35.773,   -17.403,   1,1,0
   101,'1 ',1,   1,   1,     0.000,     0.000,     0.000,     0.000,    22.348,   -15.237,   1,1,0
   102,'1 ',1,   1,   1,     0.000,     0.000,     0.000,     0.000,     5.105,    -3.063,   1,1,0
   103,'1 ',1,   1,   1,     0.000,     0.000,     0.000,     0.000,    22.547,   -15.685,   1,1,0
   104,'1 ',1,   1,   1,     0.000,     0.000,     0.000,     0.000,    40.303,   -26.515,   1,1,0
   105,'1 ',1,   1,   1,     0.000,     0.000,     0.000,     0.000,    33.290,   -27.920,   1,1,0
   106,'1 ',1,   1,   1,     0.000,     0.000,     0.000,     0.000,    46.547,   -17.320,   1,1,0
   107,'1 ',1,   1,   1,     0.000,     0.000,     0.000,     0.000,    55.170,   -13.241,   1,1,0
   108,'1 ',1,   1,   1,     0.000,     0.000,     0.000,     0.000,     2.142,    -1.071,   1,1,0
   109,'1 ',1,   1,   1,     0.000,     0.000,     0.000,     0.000,     8.555,    -3.208,   1,1,0
   110,'1 ',1,   1,   1,     0.000,     0.000,     0.000,     0.000,    41.194,   -31.688,   1,1,0
   112,'1 ',1,   1,   1,     0.000,     0.000,     0.000,     0.000,    71.531,   -13.675,   1,1,0
   113,'1 ',1,   1,   1,     0.000,     0.000,     0.000,     0.000,     6.085,     0.000,   1,1,0
   114,'1 ',1,   1,   1,     0.000,     0.000,     0.000,     0.000,     8.679,    -3.255,   1,1,0
   115,'1 ',1,   1,   1,     0.000,     0.000,     0.000,     0.000,    23.870,    -7.595,   1,1,0
   116,'1 ',1,   1,   1,     0.000,     0.000,     0.000,     0.000,   182.174,     0.000,   1,1,0
   117,'1 ',1,   1,   1,     0.000,     0.000,     0.000,     0.000,    21.090,    -8.436,   1,1,0
   118,'1 ',1,   1,   1,     0.000,     0.000,     0.000,     0.000,    36.617,   -16.644,   1,1,0
 0 /End of Load data, Begin Fixed shunt data
     1,'1 ',1,     0.000,    -3.407
     4,'1 ',1,     0.000,   -15.127
     5,'1 ',1,     0.000,   -40.000
     6,'1 ',1,     0.000,    16.254
     8,'1 ',1,     0.000,    63.053
    15,'1 ',1,     0.000,     8.390
    18,'1 ',1,     0.000,    30.520
    19,'1 ',1,     0.000,   -15.403
    24,'1 ',1,     0.000,   -15.698
    26,'1 ',1,     0.000,    10.947
    27,'1 ',1,     0.000,     4.349
    32,'1 ',1,     0.000,   -17.193
    34,'1 ',1,     0.000,    -4.340
    36,'1 ',1,     0.000,     8.566
    37,'1 ',1,     0.000,   -25.000
    40,'1 ',1,     0.000,    36.425
    42,'1 ',1,     0.000,    62.630
    44,'1 ',1,     0.000,    10.000
    45,'1 ',1,     0.000,    10.000
    48,'1 ',1,     0.000,    15.000
    49,'1 ',1,     0.000,    50.468
    55,'1 ',1,     0.000,     5.484
    56,'1 ',1,     0.000,    15.640
    61,'1 ',1,     0.000,   -38.403
    62,'1 ',1,     0.000,     2.471
    65,'1 ',1,     0.000,    87.432
    69,'1 ',1,     0.000,   -84.756
    70,'1 ',1,     0.000,    11.904
    72,'1 ',1,     0.000,   -11.505
    73,'1 ',1,     0.000,     9.865
    74,'1 ',1,     0.000,     6.341
    76,'1 ',1,     0.000,     5.867
    77,'1 ',1,     0.000,    82.968
    79,'1 ',1,     0.000,    20.000
    80,'1 ',1,     0.000,    47.703
    82,'1 ',1,     0.000,    20.000
    83,'1 ',1,     0.000,    10.000
    85,'1 ',1,     0.000,     1.732
    87,'1 ',1,     0.000,    10.699
    89,'1 ',1,     0.000,   -11.886
    90,'1 ',1,     0.000,    84.132
    91,'1 ',1,     0.000,   -12.493
    92,'1 ',1,     0.000,    38.383
    99,'1 ',1,     0.000,   -16.787
   100,'1 ',1,     0.000,    89.493
   103,'1 ',1,     0.000,    50.936
   104,'1 ',1,     0.000,     2.533
   105,'1 ',1,     0.000,     0.311
   107,'1 ',1,     0.000,    13.236
   110,'1 ',1,     0.000,     6.297
   112,'1 ',1,     0.000,    43.668
   113,'1 ',1,     0.000,     7.509
   116,'1 ',1,     0.000,    51.363
 0 /End of Fixed shunt data, Begin Generator data
    10,'1 ',   450.000,   -51.040,   200.000,  -147.000,1.05000,     0,  1000.000, 0.00000E+0, 2.00000E-1, 0.00000E+0, 0.00000E+0,1.00000,1,  100.0, 10000.000,-10000.000,   1,1.0000
    12,'1 ',    85.000,    91.395,   120.000,   -35.000,0.99000,     0,  1000.000, 0.00000E+0, 2.00000E-1, 0.00000E+0, 0.00000E+0,1.00000,1,  100.0, 10000.000,-10000.000,   1,1.0000
    25,'1 ',   220.000,    50.325,   140.000,   -47.000,1.05000,     0,  1000.000, 0.00000E+0, 2.00000E-1, 0.00000E+0, 0.00000E+0,1.00000,1,  100.0, 10000.000,-10000.000,   1,1.0000
    26,'1 ',   314.000,     0.004,  1000.000, -1000.000,1.01500,     0,  1000.000, 0.00000E+0, 2.00000E-1, 0.00000E+0, 0.00000E+0,1.00000,1,  100.0, 10000.000,-10000.000,   1,1.0000
    31,'1 ',     7.000,    32.677,   300.000,  -300.000,0.96700,     0,  1000.000, 0.00000E+0, 2.00000E-1, 0.00000E+0, 0.00000E+0,1.00000,1,  100.0, 10000.000,-10000.000,   1,1.0000
    46,'1 ',    19.000,     5.989,   100.000,  -100.000,1.00500,     0,  1000.000, 0.00000E+0, 2.00000E-1, 0.00000E+0, 0.00000E+0,1.00000,1,  100.0, 10000.000,-10000.000,   1,1.0000
    49,'1 ',   204.000,    70.392,   210.000,   -85.000,1.02500,     0,  1000.000, 0.00000E+0, 2.00000E-1, 0.00000E+0, 0.00000E+0,1.00000,1,  100.0, 10000.000,-10000.000,   1,1.0000
    54,'1 ',    48.000,    31.195,   300.000,  -300.000,0.95500,     0,  1000.000, 0.00000E+0, 2.00000E-1, 0.00000E+0, 0.00000E+0,1.00000,1,  100.0, 10000.000,-10000.000,   1,1.0000
    59,'1 ',   155.000,    72.918,   180.000,   -60.000,0.98500,     0,  1000.000, 0.00000E+0, 2.00000E-1, 0.00000E+0, 0.00000E+0,1.00000,1,  100.0, 10000.000,-10000.000,   1,1.0000
    61,'1 ',   160.000,     0.023,   300.000,  -100.000,0.99500,     0,  1000.000, 0.00000E+0, 2.00000E-1, 0.00000E+0, 0.00000E+0,1.00000,1,  100.0, 10000.000,-10000.000,   1,1.0000
    65,'1 ',   391.000,     0.008,   200.000,   -67.000,1.00500,     0,  1000.000, 0.00000E+0, 2.00000E-1, 0.00000E+0, 0.00000E+0,1.00000,1,  100.0, 10000.000,-10000.000,   1,1.0000
    66,'1 ',   392.000,   -15.206,   200.000,   -67.000,1.05000,     0,  1000.000, 0.00000E+0, 2.00000E-1, 0.00000E+0, 0.00000E+0,1.00000,1,  100.0, 10000.000,-10000.000,   1,1.0000
    69,'1 ',   541.566,     0.014,   300.000,  -300.000,1.03500,     0,  1000.000, 0.00000E+0, 2.00000E-1, 0.00000E+0, 0.00000E+0,1.00000,1,  100.0, 10000.000,-10000.000,   1,1.0000
    80,'1 ',   477.000,    -0.011,   280.000,  -165.000,1.04000,     0,  1000.000, 0.00000E+0, 2.00000E-1, 0.00000E+0, 0.00000E+0,1.00000,1,  100.0, 10000.000,-10000.000,   1,1.0000
    87,'1 ',     4.000,     0.013,  1000.000,  -100.000,1.01500,     0,  1000.000, 0.00000E+0, 2.00000E-1, 0.00000E+0, 0.00000E+0,1.00000,1,  100.0, 10000.000,-10000.000,   1,1.0000
    89,'1 ',   607.000,    -0.048,   300.000,  -210.000,1.00500,     0,  1000.000, 0.00000E+0, 2.00000E-1, 0.00000E+0, 0.00000E+0,1.00000,1,  100.0, 10000.000,-10000.000,   1,1.0000
   100,'1 ',   252.000,     0.016,   155.000,   -50.000,1.01700,     0,  1000.000, 0.00000E+0, 2.00000E-1, 0.00000E+0, 0.00000E+0,1.00000,1,  100.0, 10000.000,-10000.000,   1,1.0000
   103,'1 ',    40.000,    23.462,    40.000,   -15.000,1.01000,     0,  1000.000, 0.00000E+0, 2.00000E-1, 0.00000E+0, 0.00000E+0,1.00000,1,  100.0, 10000.000,-10000.000,   1,1.0000
   111,'1 ',    36.000,    -1.848,  1000.000,  -100.000,0.98000,     0,  1000.000, 0.00000E+0, 2.00000E-1, 0.00000E+0, 0.00000E+0,1.00000,1,  100.0, 10000.000,-10000.000,   1,1.0000
 0 /End of Generator data, Begin Branch data
     1,     2,'1 ', 3.03000E-2, 9.99000E-2,   0.02540,  100.00,  100.00,  100.00,  0.00000,  0.00000,  0.00000,  0.00000,1,1,   1.00,   1,1.0000
     1,     3,'1 ', 1.29000E-2, 4.24000E-2,   0.01082,  100.00,  100.00,  100.00,  0.00000,  0.00000,  0.00000,  0.00000,1,1,   1.00,   1,1.0000
     2,    12,'1 ', 1.87000E-2, 6.16000E-2,   0.01572,  100.00,  100.00,  100.00,  0.00000,  0.00000,  0.00000,  0.00000,1,1,   1.00,   1,1.0000
     3,     5,'1 ', 2.41000E-2, 1.08000E-1,   0.02840,  100.00,  100.00,  100.00,  0.00000,  0.00000,  0.00000,  0.00000,1,1,   1.00,   1,1.0000
     3,    12,'1 ', 4.84000E-2, 1.60000E-1,   0.04060,  100.00,  100.00,  100.00,  0.00000,  0.00000,  0.00000,  0.00000,1,1,   1.00,   1,1.0000
     4,     5,'1 ', 1.76000E-3, 7.98000E-3,   0.00210,  100.00,  100.00,  100.00,  0.00000,  0.00000,  0.00000,  0.00000,1,1,   1.00,   1,1.0000
     4,    11,'1 ', 2.09000E-2, 6.88000E-2,   0.01748,  100.00,  100.00,  100.00,  0.00000,  0.00000,  0.00000,  0.00000,1,1,   1.00,   1,1.0000
     5,     6,'1 ', 1.19000E-2, 5.40000E-2,   0.01426,  100.00,  100.00,  100.00,  0.00000,  0.00000,  0.00000,  0.00000,1,1,   1.00,   1,1.0000
     5,    11,'1 ', 2.03000E-2, 6.82000E-2,   0.01738,  100.00,  100.00,  100.00,  0.00000,  0.00000,  0.00000,  0.00000,1,1,   1.00,   1,1.0000
     6,     7,'1 ', 4.59000E-3, 2.08000E-2,   0.00550,  100.00,  100.00,  100.00,  0.00000,  0.00000,  0.00000,  0.00000,1,1,   1.00,   1,1.0000
     7,    12,'1 ', 8.62000E-3, 3.40000E-2,   0.00874,  100.00,  100.00,  100.00,  0.00000,  0.00000,  0.00000,  0.00000,1,1,   1.00,   1,1.0000
     8,     9,'1 ', 2.44000E-3, 3.05000E-2,   1.16200,  100.00,  100.00,  100.00,  0.00000,  0.00000,  0.00000,  0.00000,1,1,   1.00,   1,1.0000
     8,    30,'1 ', 4.31000E-3, 5.04000E-2,   0.51400,  100.00,  100.00,  100.00,  0.00000,  0.00000,  0.00000,  0.00000,1,1,   1.00,   1,1.0000
     9,    10,'1 ', 2.58000E-3, 3.22000E-2,   1.23000,  100.00,  100.00,  100.00,  0.00000,  0.00000,  0.00000,  0.00000,1,1,   1.00,   1,1.0000
    11,    12,'1 ', 5.95000E-3, 1.96000E-2,   0.00502,  100.00,  100.00,  100.00,  0.00000,  0.00000,  0.00000,  0.00000,1,1,   1.00,   1,1.0000
    11,    13,'1 ', 2.23000E-2, 7.31000E-2,   0.01876,  100.00,  100.00,  100.00,  0.00000,  0.00000,  0.00000,  0.00000,1,1,   1.00,   1,1.0000
    12,    14,'1 ', 2.15000E-2, 7.07000E-2,   0.01816,  100.00,  100.00,  100.00,  0.00000,  0.00000,  0.00000,  0.00000,1,1,   1.00,   1,1.0000